ROOT
ATOM      1  C   LIG    1        3.108  -0.805   1.256  0.00  0.00    +0.162 A 
ATOM      2  C   LIG    1        3.023  -2.163   1.621  0.00  0.00    +0.175 A 
ATOM      3  C   LIG    1        3.593  -2.607   2.841  0.00  0.00    +0.091 A 
ATOM      4  C   LIG    1        4.293  -1.704   3.656  0.00  0.00    -0.002 A 
ATOM      5  C   LIG    1        4.827  -2.147   4.869  0.00  0.00    +0.087 A 
ATOM      6  C   LIG    1        4.670  -3.480   5.276  0.00  0.00    +0.216 A 
ATOM      7  C   LIG    1        5.190  -4.027   6.546  0.00  0.00    +0.053 A 
ATOM      8  C   LIG    1        5.440  -5.424   6.660  0.00  0.00    -0.024 A 
ATOM      9  C   LIG    1        5.982  -5.982   7.830  0.00  0.00    +0.054 A 
ATOM     10  C   LIG    1        6.225  -5.138   8.888  0.00  0.00    +0.167 A 
ATOM     11  O   LIG    1        6.723  -5.500  10.097  0.00  0.00    -0.453 OA
ATOM     12  C   LIG    1        6.737  -4.229  10.783  0.00  0.00    +0.466 C 
ATOM     13  O   LIG    1        6.255  -3.140   9.963  0.00  0.00    -0.453 OA
ATOM     14  C   LIG    1        5.960  -3.795   8.810  0.00  0.00    +0.167 A 
ATOM     15  C   LIG    1        5.125  -6.299   5.479  0.00  0.00    +0.108 C 
ATOM     16  C   LIG    1        3.855  -5.779   4.824  0.00  0.00    +0.362 C 
ATOM     17  C   LIG    1        5.449  -3.214   7.666  0.00  0.00    +0.064 A 
ATOM     18  N   LIG    1        4.029  -4.350   4.448  0.00  0.00    -0.196 N 
ATOM     19  C   LIG    1        4.443  -0.375   3.239  0.00  0.00    +0.013 A 
ATOM     20  C   LIG    1        3.488  -3.931   3.279  0.00  0.00    +0.322 A 
ATOM     21  C   LIG    1        3.854   0.064   2.050  0.00  0.00    +0.050 A 
ENDROOT
BRANCH   1  23
ATOM     22  C   LIG    1        2.044   0.972   0.087  0.00  0.00    +0.277 C 
ATOM     23  O   LIG    1        2.452  -0.394   0.127  0.00  0.00    -0.491 OA
ENDBRANCH   1  23
BRANCH   2  24
ATOM     24  O   LIG    1        2.364  -3.146   0.918  0.00  0.00    -0.491 OA
ATOM     25  C   LIG    1        2.280  -3.005  -0.500  0.00  0.00    +0.277 C 
ENDBRANCH   2  24
TORSDOF 2
