ROOT
ATOM      1  C   LIG    1        8.927  -0.435   1.445  0.00  0.00    +0.139 A 
ATOM      2  N   LIG    1        9.864   0.570   1.404  0.00  0.00    -0.338 N 
ATOM      3  H   LIG    1        9.663   1.563   1.399  0.00  0.00    +0.167 HD
ATOM      4  C   LIG    1       11.108   0.013   1.356  0.00  0.00    +0.067 A 
ATOM      5  C   LIG    1       10.855  -1.348   1.344  0.00  0.00    +0.090 A 
ATOM      6  C   LIG    1       11.925  -2.247   1.306  0.00  0.00    +0.041 A 
ATOM      7  C   LIG    1       13.237  -1.750   1.281  0.00  0.00    +0.019 A 
ATOM      8  C   LIG    1       13.449  -0.357   1.285  0.00  0.00    +0.013 A 
ATOM      9  C   LIG    1       12.390   0.558   1.320  0.00  0.00    +0.028 A 
ATOM     10  N   LIG    1        9.518  -1.610   1.374  0.00  0.00    -0.228 NA
ENDROOT
BRANCH   7  11
ATOM     11  C   LIG    1       14.386  -2.657   1.253  0.00  0.00    +0.139 A 
ATOM     12  N   LIG    1       14.275  -4.030   1.255  0.00  0.00    -0.338 N 
ATOM     13  H   LIG    1       13.414  -4.551   1.272  0.00  0.00    +0.167 HD
ATOM     14  C   LIG    1       15.526  -4.577   1.228  0.00  0.00    +0.067 A 
ATOM     15  C   LIG    1       16.372  -3.484   1.209  0.00  0.00    +0.091 A 
ATOM     16  C   LIG    1       17.759  -3.695   1.169  0.00  0.00    +0.053 A 
ATOM     17  C   LIG    1       18.283  -5.004   1.120  0.00  0.00    +0.032 A 
ATOM     18  C   LIG    1       17.362  -6.071   1.186  0.00  0.00    +0.025 A 
ATOM     19  C   LIG    1       15.972  -5.891   1.228  0.00  0.00    +0.029 A 
ATOM     20  N   LIG    1       15.661  -2.310   1.226  0.00  0.00    -0.228 NA
BRANCH  17  21
ATOM     21  N   LIG    1       19.674  -5.264   1.040  0.00  0.00    -0.327 N 
ATOM     22  C   LIG    1       20.038  -6.302   0.042  0.00  0.00    +0.120 C 
ATOM     23  C   LIG    1       21.559  -6.582   0.011  0.00  0.00    +0.103 C 
ATOM     24  N   LIG    1       22.427  -5.393  -0.105  0.00  0.00    -0.302 NA
ATOM     25  C   LIG    1       22.309  -4.770  -1.423  0.00  0.00    +0.105 C 
ATOM     26  C   LIG    1       22.056  -4.459   0.977  0.00  0.00    +0.103 C 
ATOM     27  C   LIG    1       20.562  -4.077   1.030  0.00  0.00    +0.120 C 
ENDBRANCH  17  21
ENDBRANCH   7  11
BRANCH   1  31
ATOM     28  C   LIG    1        4.698   0.200   1.554  0.00  0.00    +0.121 A 
ATOM     29  C   LIG    1        5.551   1.117   2.168  0.00  0.00    +0.046 A 
ATOM     30  C   LIG    1        6.938   0.925   2.146  0.00  0.00    +0.015 A 
ATOM     31  C   LIG    1        7.489  -0.195   1.499  0.00  0.00    +0.018 A 
ATOM     32  C   LIG    1        6.626  -1.109   0.893  0.00  0.00    +0.015 A 
ATOM     33  C   LIG    1        5.247  -0.910   0.905  0.00  0.00    +0.046 A 
BRANCH  28  34
ATOM     34  O   LIG    1        3.354   0.479   1.616  0.00  0.00    -0.492 OA
BRANCH  34  36
ATOM     35  C   LIG    1        1.043  -0.239   1.507  0.00  0.00    +0.048 C 
ATOM     36  C   LIG    1        2.500  -0.660   1.465  0.00  0.00    +0.225 C 
ENDBRANCH  34  36
ENDBRANCH  28  34
ENDBRANCH   1  31
TORSDOF 5
