ROOT
ATOM      1  N   LIG    1        2.998   0.770   0.957  0.00  0.00    -0.190 N 
ATOM      2  C   LIG    1        2.812   2.135   0.841  0.00  0.00    +0.218 A 
ATOM      3  C   LIG    1        3.182   2.986   1.916  0.00  0.00    +0.054 A 
ATOM      4  C   LIG    1        3.036   4.388   1.731  0.00  0.00    +0.017 A 
ATOM      5  C   LIG    1        2.480   4.936   0.577  0.00  0.00    +0.024 A 
ATOM      6  C   LIG    1        2.010   4.109  -0.422  0.00  0.00    +0.031 A 
ATOM      7  C   LIG    1        3.656   2.438   3.137  0.00  0.00    +0.002 A 
ATOM      8  C   LIG    1        3.733   1.037   3.264  0.00  0.00    +0.056 A 
ATOM      9  C   LIG    1        4.126   0.499   4.522  0.00  0.00    +0.037 A 
ATOM     10  C   LIG    1        4.371   1.280   5.649  0.00  0.00    +0.025 A 
ATOM     11  C   LIG    1        4.401   2.653   5.485  0.00  0.00    +0.023 A 
ATOM     12  C   LIG    1        4.036   3.215   4.262  0.00  0.00    +0.011 A 
ATOM     13  C   LIG    1        2.258   2.735  -0.319  0.00  0.00    +0.101 A 
ATOM     14  C   LIG    1        3.409   0.222   2.148  0.00  0.00    +0.223 A 
ENDROOT
BRANCH  14  15
ATOM     15  C   LIG    1        3.464  -1.258   2.255  0.00  0.00    +0.047 A 
ATOM     16  C   LIG    1        2.480  -1.945   2.992  0.00  0.00    +0.014 A 
ATOM     17  C   LIG    1        2.529  -3.330   3.152  0.00  0.00    +0.001 A 
ATOM     18  C   LIG    1        3.545  -4.064   2.548  0.00  0.00    +0.000 A 
ATOM     19  C   LIG    1        4.529  -3.409   1.812  0.00  0.00    +0.001 A 
ATOM     20  C   LIG    1        4.507  -2.016   1.693  0.00  0.00    +0.014 A 
ENDBRANCH  14  15
BRANCH   6  21
ATOM     21  N   LIG    1        1.500   4.654  -1.608  0.00  0.00    -0.358 N 
ATOM     22  H   LIG    1        0.831   4.040  -2.070  0.00  0.00    +0.142 HD
ATOM     23  H   LIG    1        1.085   5.574  -1.471  0.00  0.00    +0.142 HD
ENDBRANCH   6  21
BRANCH  10  24
ATOM     24  N   LIG    1        4.797   0.696   6.844  0.00  0.00    -0.358 N 
ATOM     25  H   LIG    1        4.640   1.286   7.658  0.00  0.00    +0.142 HD
ATOM     26  H   LIG    1        4.418  -0.236   6.993  0.00  0.00    +0.142 HD
ENDBRANCH  10  24
BRANCH   1  28
ATOM     27  C   LIG    1        3.872  -0.208  -1.137  0.00  0.00    +0.082 C 
ATOM     28  C   LIG    1        2.671  -0.128  -0.204  0.00  0.00    +0.354 C 
ENDBRANCH   1  28
TORSDOF 4
