ROOT
ATOM      1  C   LIG    1        2.959   0.980  -0.586  0.00  0.00    +0.122 A 
ATOM      2  C   LIG    1        4.094   0.603  -1.454  0.00  0.00    +0.203 A 
ATOM      3  O   LIG    1        4.478  -0.565  -1.491  0.00  0.00    -0.286 OA
ATOM      4  C   LIG    1        4.754   1.660  -2.255  0.00  0.00    +0.049 A 
ATOM      5  C   LIG    1        4.273   2.979  -2.189  0.00  0.00    +0.055 A 
ATOM      6  C   LIG    1        4.933   3.950  -2.960  0.00  0.00    +0.052 A 
ATOM      7  C   LIG    1        6.023   3.643  -3.801  0.00  0.00    +0.067 A 
ATOM      8  C   LIG    1        6.457   2.309  -3.829  0.00  0.00    +0.145 A 
ATOM      9  F   LIG    1        7.507   1.940  -4.578  0.00  0.00    -0.204 F 
ATOM     10  N   LIG    1        3.146   3.272  -1.371  0.00  0.00    -0.343 N 
ATOM     11  C   LIG    1        5.842   1.324  -3.063  0.00  0.00    +0.054 A 
ATOM     12  C   LIG    1        2.586   2.269  -0.597  0.00  0.00    +0.105 A 
ENDROOT
BRANCH   7  13
ATOM     13  N   LIG    1        6.583   4.697  -4.547  0.00  0.00    -0.325 N 
ATOM     14  C   LIG    1        7.440   5.580  -3.720  0.00  0.00    +0.120 C 
ATOM     15  C   LIG    1        7.806   6.856  -4.516  0.00  0.00    +0.100 C 
ATOM     16  N   LIG    1        8.429   6.584  -5.825  0.00  0.00    -0.313 NA
ATOM     17  H   LIG    1        8.520   7.459  -6.340  0.00  0.00    +0.122 HD
ATOM     18  C   LIG    1        7.574   5.659  -6.597  0.00  0.00    +0.100 C 
ATOM     19  C   LIG    1        7.241   4.357  -5.828  0.00  0.00    +0.120 C 
ENDBRANCH   7  13
BRANCH  10  20
ATOM     20  C   LIG    1        2.624   4.645  -1.217  0.00  0.00    +0.087 C 
ATOM     21  C   LIG    1        1.149   4.954  -1.323  0.00  0.00    +0.027 C 
ATOM     22  C   LIG    1        2.082   5.429  -2.388  0.00  0.00    +0.027 C 
ENDBRANCH  10  20
BRANCH   1  24
ATOM     23  O   LIG    1        1.286   0.334   0.976  0.00  0.00    -0.245 OA
ATOM     24  C   LIG    1        2.228   0.020   0.267  0.00  0.00    +0.342 C 
BRANCH  24  25
ATOM     25  O   LIG    1        2.684  -1.251   0.199  0.00  0.00    -0.477 OA
ATOM     26  H   LIG    1        3.452  -1.375  -0.411  0.00  0.00    +0.295 HD
ENDBRANCH  24  25
ENDBRANCH   1  24
TORSDOF 4
